Results/PF_SnapMode/Switch_Open/VLN_Node_REPORT.Txt

LINE-GROUND and LINE-LINE VOLTAGES BY BUS & NODE

Bus       Node    VLN (kV)   Angle      pu     Base kV    Node-Node   VLL (kV)  Angle      pu

SOURCEBUS 1       6.3509 /_    0.0         1    11.000        1-2         11 /_   30.0         1
   -      2       6.3509 /_ -120.0         1    11.000        2-3         11 /_  -90.0         1
   -      3       6.3509 /_  120.0         1    11.000        3-1         11 /_  150.0         1
BUS1 .... 1       6.3506 /_    0.0   0.99996    11.000        1-2         11 /_   30.0   0.99996
   -      2       6.3506 /_ -120.0   0.99996    11.000        2-3         11 /_  -90.0   0.99996
   -      3       6.3506 /_  120.0   0.99996    11.000        3-1         11 /_  150.0   0.99996
BUS2 .... 1       6.3507 /_    0.0   0.99997    11.000        1-2         11 /_   30.0   0.99997
   -      2       6.3507 /_ -120.0   0.99997    11.000        2-3         11 /_  -90.0   0.99997
   -      3       6.3507 /_  120.0   0.99997    11.000        3-1         11 /_  150.0   0.99997
BUS3 .... 1      0.23034 /_  -30.3   0.99741     0.400        1-2    0.39896 /_   -0.3   0.99741
   -      2      0.23034 /_ -150.3   0.99741     0.400        2-3    0.39896 /_ -120.3   0.99741
   -      3      0.23034 /_   89.7   0.99741     0.400        3-1    0.39896 /_  119.7   0.99741
BUS4 .... 1      0.23062 /_  -30.2   0.99862     0.400        1-2    0.39945 /_   -0.2   0.99862
   -      2      0.23062 /_ -150.2   0.99862     0.400        2-3    0.39945 /_ -120.2   0.99862
   -      3      0.23062 /_   89.8   0.99862     0.400        3-1    0.39945 /_  119.8   0.99862
BUS5 .... 1      0.20601 /_  -30.6   0.89205     0.400        1-2    0.35682 /_   -0.6   0.89205
   -      2      0.20601 /_ -150.6   0.89205     0.400        2-3    0.35682 /_ -120.6   0.89205
   -      3      0.20601 /_   89.4   0.89205     0.400        3-1    0.35682 /_  119.4   0.89205
BUS6 .... 1      0.21769 /_  -30.3   0.94262     0.400        1-2    0.37705 /_   -0.3   0.94262
   -      2      0.21769 /_ -150.3   0.94262     0.400        2-3    0.37705 /_ -120.3   0.94262
   -      3      0.21769 /_   89.7   0.94262     0.400        3-1    0.37705 /_  119.7   0.94262
